56

O         -1.69580       -0.32960        2.02020
O          1.04480        1.32690       -1.37370
O         -3.78170       -3.05610       -0.41510
O         -5.68510       -2.18860        0.34680
O          6.11250       -2.14930       -0.72240
N          0.64220        0.68420        0.73980
N         -2.45100       -0.72110       -0.06250
N          3.16460        2.90650       -0.25040
C         -0.00220       -0.57370        0.38770
C         -3.86700       -0.67080        0.28710
C         -4.59910        0.44200       -0.51860
C          1.80290        2.84760        0.28460
C          1.00620        4.13150       -0.09110
C          0.73980       -1.74790        1.05370
C         -1.44520       -0.53330        0.83970
C          1.13380        1.56410       -0.17720
C         -4.59620        0.19310       -2.03850
C         -3.99550        1.82120       -0.21660
C          2.17220       -1.85000        0.58450
C          0.87140        4.35430       -1.60630
C         -0.38110        4.13050        0.56940
C         -4.50610       -2.02350        0.06940
C          2.46310       -2.10540       -0.76710
C          3.23160       -1.69900        1.49530
C          3.78880       -2.20360       -1.19920
C          4.55680       -1.79740        1.06060
C          4.83960       -2.05020       -0.28950
H          0.01380       -0.73540       -0.71120
H         -3.99170       -0.43740        1.36780
H         -5.66090        0.46180       -0.18540
H          1.87160        2.83590        1.39660
H          1.56620        5.00090        0.32050
H          0.22280       -2.70290        0.81470
H          0.70530       -1.61310        2.15790
H          0.71650        0.91800        1.74220
H         -2.20150       -0.91790       -1.04290
H         -5.06990       -0.78190       -2.27790
H         -3.56730        0.20430       -2.45320
H         -5.17980        0.98580       -2.55320
H         -2.93650        1.87040       -0.54850
H         -4.56610        2.61440       -0.74540
H         -4.03990        2.03110        0.87300
H          0.26850        3.55690       -2.08560
H          0.36290        5.32300       -1.79990
H          1.87250        4.39340       -2.08430
H         -1.00090        3.29050        0.19140
H         -0.28140        4.03170        1.67150
H         -0.91010        5.08380        0.35610
H          3.64890        3.75430        0.12470
H          3.70100        2.07010        0.07780
H          1.66580       -2.23250       -1.48760
H          3.03420       -1.50380        2.54200
H          3.99870       -2.40120       -2.24290
H          5.36250       -1.67810        1.77400
H         -4.17580       -3.92910       -0.55250
H          6.86820       -2.05210       -0.12560
